Version 4
SHEET 1 1524 680
WIRE 656 -288 -128 -288
WIRE 1056 -272 1056 -304
WIRE -128 -224 -128 -288
WIRE 560 -192 512 -192
WIRE 1056 -176 1056 -192
WIRE 704 -128 704 -160
WIRE 352 -112 352 -144
WIRE 656 -112 656 -288
WIRE 688 -112 656 -112
WIRE 336 -96 48 -96
WIRE 864 -96 752 -96
WIRE 512 -80 512 -192
WIRE 512 -80 400 -80
WIRE 528 -80 512 -80
WIRE 624 -80 624 -192
WIRE 624 -80 608 -80
WIRE 688 -80 624 -80
WIRE 224 -64 192 -64
WIRE 336 -64 304 -64
WIRE 624 -48 624 -80
WIRE 704 -32 704 -64
WIRE 352 -16 352 -48
WIRE 304 32 304 -64
WIRE 48 48 48 -96
WIRE 192 48 192 -64
WIRE 624 48 624 16
WIRE 304 128 304 112
WIRE 864 128 864 -96
WIRE 880 128 864 128
WIRE 1056 144 944 144
WIRE 1296 144 1248 144
WIRE 1520 144 1456 144
WIRE 48 160 48 128
WIRE 192 160 192 128
WIRE 880 192 800 192
WIRE 1248 192 1248 144
WIRE 1296 192 1248 192
WIRE 368 208 368 160
WIRE 352 224 48 224
WIRE 1056 224 1056 144
WIRE 1168 224 1056 224
WIRE 1248 224 1248 192
WIRE 1248 224 1168 224
WIRE 624 240 416 240
WIRE 800 240 800 192
WIRE 800 240 624 240
WIRE 352 256 192 256
WIRE 368 304 368 272
WIRE 1056 304 1056 288
WIRE 1120 304 1056 304
WIRE 1168 304 1120 304
WIRE 48 320 48 224
WIRE 192 320 192 256
WIRE 1120 352 1120 304
WIRE 48 448 48 400
WIRE 192 448 192 400
FLAG 704 -32 0
FLAG 352 -16 0
FLAG 48 160 0
FLAG 192 160 0
FLAG 48 448 0
FLAG 192 448 0
FLAG 368 304 0
FLAG 624 48 0
FLAG 1120 352 0
FLAG 1056 -176 0
FLAG 1056 -304 5V
FLAG 368 160 5V
FLAG 352 -144 5V
FLAG 704 -160 5V
FLAG 304 128 0
FLAG 624 240 APSDT
FLAG 864 -96 BRAKEDT
FLAG -128 -144 0
SYMBOL voltage 48 32 R0
WINDOW 0 -113 7 Left 2
SYMATTR InstName BRAKERF
SYMATTR Value 1
SYMBOL voltage 192 32 R0
WINDOW 0 -82 9 Left 2
WINDOW 3 -56 91 Left 2
WINDOW 123 0 0 Left 2
WINDOW 39 0 0 Left 2
SYMATTR InstName BRAKE
SYMATTR Value PULSE(0 2.1 0 1m 1m 1.2 1.3 11)
SYMBOL voltage 48 304 R0
SYMATTR InstName APSRF
SYMATTR Value .8
SYMBOL voltage 192 304 R0
WINDOW 123 0 0 Left 2
WINDOW 39 0 0 Left 2
SYMATTR InstName APS
SYMATTR Value 1
SYMBOL Opamps\\LTC6255 368 -80 R0
SYMATTR InstName U1
SYMBOL Opamps\\LTC6255 720 -96 R0
SYMATTR InstName U2
SYMBOL Opamps\\LTC6255 384 240 R0
SYMATTR InstName U3
SYMBOL res 320 -80 R90
WINDOW 0 2 52 VBottom 2
WINDOW 3 32 56 VTop 2
SYMATTR InstName R1
SYMATTR Value 1k
SYMBOL res 320 128 R180
WINDOW 0 36 76 Left 2
WINDOW 3 36 40 Left 2
SYMATTR InstName R2
SYMATTR Value 1k
SYMBOL res 512 -96 M90
WINDOW 0 0 56 VBottom 2
WINDOW 3 32 56 VTop 2
SYMATTR InstName R3
SYMATTR Value 150k
SYMBOL cap 608 -48 R0
SYMATTR InstName C1
SYMATTR Value 10µ
SYMBOL schottky 624 -208 R90
WINDOW 0 -4 32 VBottom 2
WINDOW 3 36 32 VTop 2
SYMATTR InstName D1
SYMATTR Value MBRS130L
SYMATTR Description Zener Diode
SYMATTR Type zener
SYMBOL Digital\\and 912 96 R0
SYMATTR InstName A1
SYMBOL Digital\\dflop 1376 96 R0
SYMATTR InstName A2
SYMBOL cap 1040 224 R0
SYMATTR InstName C2
SYMATTR Value 1µf
SYMBOL res 1152 208 R0
SYMATTR InstName R4
SYMATTR Value 1k
SYMBOL voltage 1056 -288 R0
WINDOW 123 0 0 Left 2
WINDOW 39 0 0 Left 2
SYMATTR InstName V5
SYMATTR Value 5
SYMBOL voltage -128 -240 R0
WINDOW 123 0 0 Left 2
WINDOW 39 0 0 Left 2
SYMATTR InstName V1
SYMATTR Value 3.3
TEXT 728 416 Left 2 !.tran 0 2 0
